[General]
network=rede02
sim-time-limit = 20s
*.*.wlan.interfaceTableModule = ""

*.nodo0.mobility.initialX = 390m
*.nodo0.mobility.initialY = 390m
*.nodo0.mobility.initialZ = 10m
*.nodo1.mobility.initialX = 420m
*.nodo1.mobility.initialY = 420m
*.nodo1.mobility.initialZ = 10m
*.nodo2.mobility.initialX = 480m
*.nodo2.mobility.initialY = 480m
*.nodo2.mobility.initialZ = 10m

*.nodo0.app.numero = 0
*.nodo1.app.numero = 1
*.nodo2.app.numero = 2


